# avogadro generated ORCA input file 
# Basic Mode
# 
! BP RI OPT FREQ def2-SVP def2-SVP/J 

* xyz 0 1
   C       -4.90226       -4.45528       -1.08385
  Br       -3.83226       -4.45528       -1.08385
   C       -5.25892       -4.88101       -1.99842
   C       -5.25893       -3.45037       -0.99525
   C       -5.25893       -5.03446       -0.25787
   H       -4.90226       -2.87119       -1.82123
   H       -4.90226       -3.02464       -0.08068
   H       -6.32893       -3.45037       -0.99525
   H       -4.90225       -4.30182       -2.82440
   H       -6.32892       -4.88101       -1.99843
   H       -4.90226       -5.88592       -2.08702
   H       -4.90226       -6.03936       -0.34646
   H       -6.32893       -5.03446       -0.25787
   H       -4.90226       -4.60873        0.65671
*

