12
	Energy:      -5.0014086
C         -3.87975        0.75217        0.02475
C         -3.90121       -0.58938       -0.68762
C         -3.92045        1.92133       -0.94431
H         -4.69139        0.82055        0.75437
H         -3.06714        1.90727       -1.63182
H         -3.89926        2.87747       -0.40988
H         -4.83439        1.89601       -1.54610
H         -3.04715       -0.70178       -1.36507
H         -4.81449       -0.70021       -1.28067
H         -3.86635       -1.41715        0.02921
Cl        -7.98860        0.67918       -0.38111
Br        -2.21863        0.87188        1.07113
