15
	Energy:       1.6867494
C         -4.18152        1.77179       -0.16784
Br         0.60166        1.90177        0.74682
C         -3.96735        1.41672        1.30392
C         -3.49409        0.75181       -1.07620
C         -3.67761        3.18506       -0.46245
H         -2.60264        3.26729       -0.27167
H         -4.18133        3.92874        0.16561
H         -3.84826        3.46081       -1.50940
H         -4.34739        0.41462        1.53339
H         -4.47655        2.12703        1.96532
H         -2.90336        1.43197        1.56160
H         -2.41217        0.74187       -0.90867
H         -3.66128        0.98165       -2.13473
H         -3.86520       -0.26283       -0.89164
Cl        -5.95492        1.72359       -0.50700
