5
Coordinates from ORCA-job Freq_Bromomethane E -2612.605017902851
  C      -3.960240      0.960400      0.000000
  Br     -2.890240      0.960400      0.000000
  H      -4.316910      0.087970     -0.506510
  H      -4.316910      1.835270     -0.502290
  H      -4.316910      0.957970      1.008800
5
Coordinates from ORCA-job Freq_Bromomethane E -2613.110332432743
  C      -3.996233      0.960400      0.000000
  Br     -2.828271      0.960400      0.000000
  H      -4.325569      0.097245     -0.501125
  H      -4.325569      1.825969     -0.496950
  H      -4.325569      0.957996      0.998075
5
Coordinates from ORCA-job Freq_Bromomethane E -2613.434520112314
  C      -4.029089      0.960400      0.000000
  Br     -2.764885      0.960400      0.000000
  H      -4.335745      0.101764     -0.498502
  H      -4.335745      1.821438     -0.494349
  H      -4.335745      0.958008      0.992851
5
Coordinates from ORCA-job Freq_Bromomethane E -2613.643003600409
  C      -4.059917      0.960400     -0.000000
  Br     -2.701223      0.960400      0.000000
  H      -4.346691      0.102584     -0.498026
  H      -4.346690      1.820615     -0.493876
  H      -4.346689      0.958011      0.991902
5
Coordinates from ORCA-job Freq_Bromomethane E -2613.776958726147
  C      -4.088269      0.960400     -0.000000
  Br     -2.637850      0.960400      0.000001
  H      -4.358364      0.098321     -0.500501
  H      -4.358364      1.824890     -0.496331
  H      -4.358363      0.957999      0.996832
5
Coordinates from ORCA-job Freq_Bromomethane E -2613.863410485819
  C      -4.113911      0.960400     -0.000000
  Br     -2.575239      0.960400      0.000001
  H      -4.370688      0.089002     -0.505912
  H      -4.370687      1.834235     -0.501697
  H      -4.370686      0.957973      1.007608
5
Coordinates from ORCA-job Freq_Bromomethane E -2613.919233684897
  C      -4.136755      0.960400     -0.000000
  Br     -2.513210      0.960400      0.000001
  H      -4.383750      0.076166     -0.513365
  H      -4.383748      1.847106     -0.509087
  H      -4.383747      0.957937      1.022451
5
Coordinates from ORCA-job Freq_Bromomethane E -2613.954779217221
  C      -4.156759      0.960400     -0.000000
  Br     -2.450907      0.960400      0.000001
  H      -4.397850      0.062386     -0.521365
  H      -4.397848      1.860924     -0.517021
  H      -4.397847      0.957899      1.038386
5
Coordinates from ORCA-job Freq_Bromomethane E -2613.976401588186
  C      -4.173268      0.960401     -0.000000
  Br     -2.387496      0.960400      0.000001
  H      -4.413483      0.050004     -0.528555
  H      -4.413481      1.873341     -0.524151
  H      -4.413482      0.957864      1.052705
5
Coordinates from ORCA-job Freq_Bromomethane E -2613.988529139477
  C      -4.185221      0.960401     -0.000000
  Br     -2.322642      0.960400      0.000000
  H      -4.431117      0.041160     -0.533690
  H      -4.431114      1.882210     -0.529243
  H      -4.431116      0.957839      1.062933
5
Coordinates from ORCA-job Freq_Bromomethane E -2613.994302334339
  C      -4.191203      0.960401      0.000000
  Br     -2.257044      0.960400     -0.000001
  H      -4.450988      0.037025     -0.536090
  H      -4.450986      1.886357     -0.531624
  H      -4.450989      0.957827      1.067715
5
Coordinates from ORCA-job Freq_Bromomethane E -2613.995833749060
  C      -4.189495      0.960401      0.000000
  Br     -2.215215      0.960400     -0.000001
  H      -4.465500      0.038269     -0.535368
  H      -4.465498      1.885109     -0.530908
  H      -4.465503      0.957831      1.066277
5
Coordinates from ORCA-job Freq_Bromomethane E -2613.996291830797
  C      -4.183421      0.960401      0.000000
  Br     -2.193448      0.960400     -0.000002
  H      -4.474780      0.041291     -0.533613
  H      -4.474778      1.882079     -0.529168
  H      -4.474783      0.957839      1.062783
5
Coordinates from ORCA-job Freq_Bromomethane E -2613.996622284956
  C      -4.173029      0.960401      0.000000
  Br     -2.180032      0.960400     -0.000002
  H      -4.482716      0.045416     -0.531218
  H      -4.482713      1.877942     -0.526793
  H      -4.482720      0.957850      1.058012
5
Coordinates from ORCA-job Freq_Bromomethane E -2613.996953464474
  C      -4.156388      0.960401      0.000000
  Br     -2.173911      0.960400     -0.000003
  H      -4.490303      0.051126     -0.527902
  H      -4.490300      1.872217     -0.523505
  H      -4.490307      0.957866      1.051410
5
Coordinates from ORCA-job Freq_Bromomethane E -2613.997114345314
  C      -4.144666      0.960401      0.000000
  Br     -2.180063      0.960400     -0.000003
  H      -4.492160      0.054303     -0.526058
  H      -4.492157      1.869031     -0.521676
  H      -4.492164      0.957875      1.047736
5
Coordinates from ORCA-job Freq_Bromomethane E -2613.997142849364
  C      -4.143077      0.960401      0.000000
  Br     -2.187065      0.960400     -0.000002
  H      -4.490356      0.054111     -0.526169
  H      -4.490353      1.869223     -0.521787
  H      -4.490359      0.957874      1.047958
5
Coordinates from ORCA-job Freq_Bromomethane E -2613.997143861267
  C      -4.143883      0.960401      0.000000
  Br     -2.188292      0.960400     -0.000002
  H      -4.489678      0.053719     -0.526397
  H      -4.489675      1.869617     -0.522013
  H      -4.489682      0.957873      1.048412
