8
Coordinates from ORCA-job Freq_Bromoethane E -2651.552699584717
  C      -3.960240      0.960400      0.000000
  Br     -2.890240      0.960400      0.000000
  C      -4.316910      0.087970     -0.506510
  H      -4.316910      1.835270     -0.502290
  H      -4.316910      0.957970      1.008800
  H      -3.960230      0.090410     -1.515310
  H      -5.386910      0.087970     -0.506510
  H      -3.960240     -0.786900     -0.004210
8
Coordinates from ORCA-job Freq_Bromoethane E -2652.072567256082
  C      -3.978777      0.978930      0.010758
  Br     -2.824374      0.980529      0.011687
  C      -4.328653      0.074469     -0.514348
  H      -4.317364      1.844939     -0.486105
  H      -4.317364      0.976820      1.009172
  H      -3.968890      0.075356     -1.525786
  H      -5.404268      0.065907     -0.519319
  H      -3.968900     -0.803461     -0.012089
8
Coordinates from ORCA-job Freq_Bromoethane E -2652.439270561637
  C      -3.993833      1.002808      0.024621
  Br     -2.760626      1.001637      0.023941
  C      -4.342039      0.055866     -0.525149
  H      -4.315587      1.864601     -0.467998
  H      -4.315587      1.002293      1.017271
  H      -3.978545      0.055632     -1.539958
  H      -5.423818      0.036200     -0.536567
  H      -3.978555     -0.825547     -0.022191
8
Coordinates from ORCA-job Freq_Bromoethane E -2652.701796256127
  C      -4.007986      1.027525      0.038971
  Br     -2.697210      1.021942      0.035730
  C      -4.355432      0.036455     -0.536418
  H      -4.313966      1.887491     -0.450354
  H      -4.313966      1.028964      1.028401
  H      -3.988196      0.035034     -1.555004
  H      -5.443629      0.004903     -0.554737
  H      -3.988205     -0.848824     -0.032619
8
Coordinates from ORCA-job Freq_Bromoethane E -2652.889243652067
  C      -4.020999      1.052610      0.053535
  Br     -2.633979      1.041708      0.047206
  C      -4.368845      0.016401     -0.548061
  H      -4.312630      1.913903     -0.434098
  H      -4.312630      1.056177      1.043278
  H      -3.998018      0.013653     -1.570790
  H      -5.463464     -0.027828     -0.573740
  H      -3.998027     -0.873134     -0.043359
8
Coordinates from ORCA-job Freq_Bromoethane E -2653.022267153802
  C      -4.032829      1.077257      0.067844
  Br     -2.570798      1.060972      0.058390
  C      -4.382298     -0.003976     -0.559891
  H      -4.311797      1.943685     -0.420247
  H      -4.311797      1.082973      1.062274
  H      -4.008103     -0.008060     -1.586857
  H      -5.482857     -0.061508     -0.593293
  H      -4.008112     -0.897854     -0.054250
8
Coordinates from ORCA-job Freq_Bromoethane E -2653.115733201681
  C      -4.043544      1.100552      0.081369
  Br     -2.507510      1.079869      0.069361
  C      -4.395858     -0.024257     -0.571665
  H      -4.311660      1.975988     -0.409549
  H      -4.311660      1.108280      1.085021
  H      -4.018545     -0.029446     -1.602557
  H      -5.501260     -0.095402     -0.612971
  H      -4.018554     -0.922094     -0.065039
8
Coordinates from ORCA-job Freq_Bromoethane E -2653.180326014249
  C      -4.053120      1.121761      0.093682
  Br     -2.443930      1.098762      0.080329
  C      -4.409685     -0.044123     -0.583198
  H      -4.312319      2.009524     -0.402287
  H      -4.312319      1.131215      1.110544
  H      -4.029464     -0.049860     -1.617299
  H      -5.518278     -0.128770     -0.632343
  H      -4.029475     -0.945019     -0.075459
8
Coordinates from ORCA-job Freq_Bromoethane E -2653.223833565967
  C      -4.061607      1.140228      0.104404
  Br     -2.379642      1.118189      0.091607
  C      -4.423963     -0.063233     -0.594292
  H      -4.313904      2.042159     -0.398172
  H      -4.313904      1.150971      1.136846
  H      -4.040911     -0.068520     -1.630500
  H      -5.533734     -0.160567     -0.650803
  H      -4.040925     -0.965737     -0.085120
8
Coordinates from ORCA-job Freq_Bromoethane E -2653.251823510699
  C      -4.068877      1.155325      0.113169
  Br     -2.314138      1.138864      0.103609
  C      -4.438829     -0.081280     -0.604770
  H      -4.316627      2.071458     -0.396723
  H      -4.316627      1.166757      1.161573
  H      -4.052801     -0.084639     -1.641791
  H      -5.547873     -0.189460     -0.667577
  H      -4.052818     -0.983536     -0.093520
8
Coordinates from ORCA-job Freq_Bromoethane E -2653.268563213589
  C      -4.074580      1.166406      0.119602
  Br     -2.247004      1.161670      0.116847
  C      -4.454273     -0.097967     -0.614457
  H      -4.320796      2.094768     -0.397366
  H      -4.320795      1.177756      1.182136
  H      -4.064866     -0.097503     -1.651056
  H      -5.561390     -0.213681     -0.681639
  H      -4.064887     -0.997959     -0.100098
8
Coordinates from ORCA-job Freq_Bromoethane E -2653.277368441748
  C      -4.078187      1.172810      0.123321
  Br     -2.178228      1.187573      0.131884
  C      -4.470014     -0.112948     -0.623156
  H      -4.326775      2.109534     -0.399589
  H      -4.326774      1.183146      1.196065
  H      -4.076694     -0.106740     -1.658402
  H      -5.575201     -0.230969     -0.691677
  H      -4.076718     -1.008916     -0.104476
8
Coordinates from ORCA-job Freq_Bromoethane E -2653.280544853398
  C      -4.078579      1.173127      0.123505
  Br     -2.123012      1.211552      0.145803
  C      -4.482130     -0.122762     -0.628855
  H      -4.333501      2.111999     -0.402699
  H      -4.333499      1.181666      1.199750
  H      -4.085529     -0.111160     -1.662662
  H      -5.586783     -0.236129     -0.694675
  H      -4.085555     -1.014804     -0.106198
8
Coordinates from ORCA-job Freq_Bromoethane E -2653.281574350542
  C      -4.076311      1.168957      0.121085
  Br     -2.090661      1.228821      0.155827
  C      -4.488303     -0.126273     -0.630894
  H      -4.339533      2.105550     -0.406115
  H      -4.339531      1.175498      1.195845
  H      -4.090285     -0.112211     -1.664009
  H      -5.593654     -0.230362     -0.691329
  H      -4.090312     -1.016491     -0.106439
8
Coordinates from ORCA-job Freq_Bromoethane E -2653.282281629958
  C      -4.071479      1.161040      0.116488
  Br     -2.066508      1.245551      0.165538
  C      -4.491465     -0.126167     -0.630833
  H      -4.346710      2.093005     -0.410971
  H      -4.346706      1.165058      1.187358
  H      -4.093777     -0.112504     -1.664064
  H      -5.598141     -0.215813     -0.682885
  H      -4.093804     -1.016680     -0.106662
8
Coordinates from ORCA-job Freq_Bromoethane E -2653.282868729164
  C      -4.063710      1.149834      0.109983
  Br     -2.050851      1.261782      0.174959
  C      -4.491104     -0.122234     -0.628551
  H      -4.355210      2.075499     -0.417233
  H      -4.355206      1.150936      1.175260
  H      -4.096543     -0.113364     -1.663202
  H      -5.599393     -0.192607     -0.669414
  H      -4.096573     -1.016356     -0.107832
8
Coordinates from ORCA-job Freq_Bromoethane E -2653.283199255501
  C      -4.056417      1.141453      0.105117
  Br     -2.050343      1.270009      0.179733
  C      -4.487068     -0.116516     -0.625231
  H      -4.361214      2.062624     -0.421340
  H      -4.361208      1.140983      1.166114
  H      -4.097922     -0.115705     -1.662307
  H      -5.596463     -0.172617     -0.657811
  H      -4.097955     -1.016741     -0.110306
8
Coordinates from ORCA-job Freq_Bromoethane E -2653.283354162698
  C      -4.051921      1.138795      0.103574
  Br     -2.058124      1.270573      0.180059
  C      -4.482222     -0.112319     -0.622794
  H      -4.363513      2.058627     -0.421677
  H      -4.363507      1.138708      1.162810
  H      -4.098562     -0.119102     -1.662225
  H      -5.592142     -0.163435     -0.652480
  H      -4.098599     -1.018357     -0.113297
8
Coordinates from ORCA-job Freq_Bromoethane E -2653.283433894375
  C      -4.049190      1.139495      0.103980
  Br     -2.064344      1.269409      0.179383
  C      -4.478672     -0.110503     -0.621739
  H      -4.364124      2.059558     -0.419728
  H      -4.364116      1.140864      1.162651
  H      -4.099645     -0.122759     -1.663035
  H      -5.588816     -0.161696     -0.651470
  H      -4.099684     -1.020878     -0.116073
8
Coordinates from ORCA-job Freq_Bromoethane E -2653.283509811453
  C      -4.045756      1.141074      0.104896
  Br     -2.066879      1.269922      0.179682
  C      -4.475607     -0.109925     -0.621403
  H      -4.365119      2.061496     -0.416481
  H      -4.365108      1.144647      1.162724
  H      -4.102053     -0.127327     -1.664761
  H      -5.585974     -0.161750     -0.651500
  H      -4.102094     -1.024646     -0.119187
8
Coordinates from ORCA-job Freq_Bromoethane E -2653.283602014869
  C      -4.039954      1.142863      0.105933
  Br     -2.064717      1.273614      0.181828
  C      -4.472418     -0.110580     -0.621783
  H      -4.367515      2.063338     -0.411499
  H      -4.367499      1.149890      1.161854
  H      -4.106649     -0.133382     -1.667901
  H      -5.583147     -0.161875     -0.651570
  H      -4.106692     -1.030378     -0.122892
8
Coordinates from ORCA-job Freq_Bromoethane E -2653.283662790313
  C      -4.034881      1.143176      0.106114
  Br     -2.059024      1.278461      0.184646
  C      -4.471139     -0.112425     -0.622854
  H      -4.370110      2.063260     -0.407833
  H      -4.370090      1.153037      1.159968
  H      -4.110562     -0.136399     -1.670699
  H      -5.582178     -0.161317     -0.651244
  H      -4.110605     -1.034303     -0.124126
8
Coordinates from ORCA-job Freq_Bromoethane E -2653.283697341262
  C      -4.031900      1.142139      0.105511
  Br     -2.054464      1.281698      0.186529
  C      -4.471385     -0.114571     -0.624101
  H      -4.371803      2.061911     -0.406166
  H      -4.371780      1.153817      1.157968
  H      -4.112326     -0.135785     -1.672367
  H      -5.582567     -0.160274     -0.650638
  H      -4.112366     -1.035444     -0.122766
8
Coordinates from ORCA-job Freq_Bromoethane E -2653.283720474338
  C      -4.030292      1.140431      0.104518
  Br     -2.052710      1.283003      0.187290
  C      -4.472136     -0.116625     -0.625294
  H      -4.372597      2.060258     -0.405530
  H      -4.372572      1.153549      1.156216
  H      -4.112456     -0.133223     -1.673231
  H      -5.583337     -0.158984     -0.649889
  H      -4.112490     -1.034918     -0.120111
8
Coordinates from ORCA-job Freq_Bromoethane E -2653.283735574426
  C      -4.029624      1.138752      0.103542
  Br     -2.053902      1.282731      0.187136
  C      -4.472804     -0.118189     -0.626203
  H      -4.372563      2.059062     -0.405266
  H      -4.372538      1.153185      1.155046
  H      -4.111596     -0.130474     -1.673509
  H      -5.583940     -0.157784     -0.649191
  H      -4.111624     -1.033792     -0.117586
8
Coordinates from ORCA-job Freq_Bromoethane E -2653.283743335324
  C      -4.029539      1.137809      0.102994
  Br     -2.056342      1.282015      0.186724
  C      -4.473128     -0.118885     -0.626608
  H      -4.372021      2.058778     -0.405001
  H      -4.371996      1.153273      1.154666
  H      -4.110677     -0.129279     -1.673445
  H      -5.584189     -0.157078     -0.648780
  H      -4.110699     -1.033142     -0.116579
8
Coordinates from ORCA-job Freq_Bromoethane E -2653.283748354543
  C      -4.029593      1.137376      0.102742
  Br     -2.058358      1.281823      0.186616
  C      -4.473381     -0.119126     -0.626748
  H      -4.371335      2.059019     -0.404595
  H      -4.371310      1.153746      1.154672
  H      -4.110107     -0.129494     -1.673313
  H      -5.584380     -0.156723     -0.648572
  H      -4.110126     -1.033132     -0.116831
8
Coordinates from ORCA-job Freq_Bromoethane E -2653.283754251554
  C      -4.029628      1.136994      0.102518
  Br     -2.059964      1.282529      0.187030
  C      -4.473920     -0.119317     -0.626860
  H      -4.370369      2.059557     -0.403882
  H      -4.370346      1.154632      1.154783
  H      -4.109752     -0.130806     -1.673157
  H      -5.584847     -0.156455     -0.648412
  H      -4.109764     -1.033644     -0.118050
8
Coordinates from ORCA-job Freq_Bromoethane E -2653.283760215873
  C      -4.029547      1.136553      0.102259
  Br     -2.060384      1.284488      0.188175
  C      -4.474880     -0.119560     -0.627001
  H      -4.369252      2.060198     -0.402905
  H      -4.369231      1.155799      1.154850
  H      -4.109780     -0.133020     -1.673037
  H      -5.585732     -0.156333     -0.648335
  H      -4.109783     -1.034635     -0.120035
8
Coordinates from ORCA-job Freq_Bromoethane E -2653.283763406519
  C      -4.029411      1.136233      0.102071
  Br     -2.059330      1.286499      0.189348
  C      -4.475729     -0.119743     -0.627108
  H      -4.368625      2.060504     -0.402254
  H      -4.368605      1.156517      1.154789
  H      -4.110178     -0.134581     -1.673021
  H      -5.586537     -0.156546     -0.648454
  H      -4.110175     -1.035393     -0.121401
8
Coordinates from ORCA-job Freq_Bromoethane E -2653.283764434147
  C      -4.029329      1.136078      0.101980
  Br     -2.058254      1.287407      0.189877
  C      -4.476071     -0.119794     -0.627138
  H      -4.368503      2.060493     -0.402065
  H      -4.368484      1.156676      1.154684
  H      -4.110543     -0.134873     -1.673065
  H      -5.586868     -0.156921     -0.648669
  H      -4.110537     -1.035576     -0.121634
