8
Coordinates from ORCA-job Optim_Bromoethane E -2651.552708687977
  C      -7.431030      1.082780      3.219180
  Br     -6.361030      1.082780      3.219180
  C      -7.787700      0.814310      2.246750
  H      -7.787700      2.059160      3.472890
  H      -7.787700      0.374870      3.937890
  H      -7.431030      1.522230      1.528040
  H      -8.857700      0.814320      2.246750
  H      -7.431030     -0.162070      1.993040
8
Coordinates from ORCA-job Optim_Bromoethane E -2652.072575591724
  C      -7.449567      1.088482      3.239833
  Br     -6.295164      1.088974      3.241616
  C      -7.799443      0.810156      2.231702
  H      -7.788154      2.054736      3.491217
  H      -7.788154      0.388070      3.951350
  H      -7.439690      1.518812      1.510022
  H      -8.875058      0.807531      2.222158
  H      -7.439689     -0.168380      1.975822
8
Coordinates from ORCA-job Optim_Bromoethane E -2652.439276948222
  C      -7.464624      1.095829      3.266447
  Br     -6.231415      1.095468      3.265141
  C      -7.812829      0.804431      2.210967
  H      -7.786377      2.056102      3.517911
  H      -7.786378      0.400592      3.974964
  H      -7.449345      1.514648      1.486096
  H      -8.894610      0.798389      2.189046
  H      -7.449343     -0.177081      1.953149
8
Coordinates from ORCA-job Optim_Bromoethane E -2652.701801064958
  C      -7.478777      1.103435      3.293996
  Br     -6.167999      1.101716      3.287773
  C      -7.826222      0.798459      2.189332
  H      -7.784756      2.060099      3.546535
  H      -7.784757      0.411847      4.001583
  H      -7.458996      1.510471      1.460933
  H      -8.914421      0.788759      2.154160
  H      -7.458992     -0.186405      1.929409
8
Coordinates from ORCA-job Optim_Bromoethane E -2652.889246286129
  C      -7.491789      1.111155      3.321957
  Br     -6.104767      1.107799      3.309803
  C      -7.839635      0.792288      2.166981
  H      -7.783419      2.067582      3.576633
  H      -7.783421      0.420866      4.031258
  H      -7.468818      1.506253      1.434692
  H      -8.934256      0.778686      2.117677
  H      -7.468815     -0.196249      1.904719
8
Coordinates from ORCA-job Optim_Bromoethane E -2653.022268220451
  C      -7.503619      1.118739      3.349429
  Br     -6.041586      1.113727      3.331277
  C      -7.853087      0.786019      2.144271
  H      -7.782587      2.079154      3.607372
  H      -7.782589      0.426704      4.063582
  H      -7.478903      1.501995      1.408017
  H      -8.953649      0.768322      2.080137
  H      -7.478901     -0.206281      1.879635
8
Coordinates from ORCA-job Optim_Bromoethane E -2653.115733382045
  C      -7.514333      1.125909      3.375397
  Br     -5.978298      1.119544      3.352342
  C      -7.866646      0.779778      2.121667
  H      -7.782449      2.094734      3.637625
  H      -7.782451      0.428853      4.097544
  H      -7.489345      1.497713      1.381830
  H      -8.972052      0.757891      2.042357
  H      -7.489345     -0.216042      1.854957
8
Coordinates from ORCA-job Optim_Bromoethane E -2653.180325095992
  C      -7.523909      1.132435      3.399037
  Br     -5.914717      1.125359      3.373404
  C      -7.880471      0.773665      2.099527
  H      -7.783109      2.113600      3.666286
  H      -7.783111      0.427366      4.131828
  H      -7.500267      1.493453      1.357011
  H      -8.989069      0.747623      2.005165
  H      -7.500269     -0.225121      1.831463
8
Coordinates from ORCA-job Optim_Bromoethane E -2653.223832051120
  C      -7.532394      1.138118      3.419622
  Br     -5.850428      1.131339      3.395061
  C      -7.894747      0.767785      2.078228
  H      -7.784693      2.134024      3.692069
  H      -7.784695      0.423062      4.164440
  H      -7.511717      1.489366      1.334518
  H      -9.004524      0.737838      1.969724
  H      -7.511722     -0.233152      1.810058
8
Coordinates from ORCA-job Optim_Bromoethane E -2653.251821972440
  C      -7.539663      1.142764      3.436450
  Br     -5.784922      1.137702      3.418109
  C      -7.909611      0.762231      2.058113
  H      -7.787417      2.153932      3.713613
  H      -7.787417      0.417027      4.193148
  H      -7.523612      1.485757      1.315169
  H      -9.018661      0.728947      1.937519
  H      -7.523617     -0.239980      1.791599
8
Coordinates from ORCA-job Optim_Bromoethane E -2653.268561623682
  C      -7.545364      1.146173      3.448800
  Br     -5.717788      1.144719      3.443530
  C      -7.925056      0.757097      2.039513
  H      -7.791585      2.171028      3.729469
  H      -7.791585      0.410486      4.215531
  H      -7.535680      1.483055      1.299547
  H      -9.032178      0.721493      1.910520
  H      -7.535684     -0.245671      1.776810
8
Coordinates from ORCA-job Optim_Bromoethane E -2653.277367063635
  C      -7.548970      1.148142      3.455936
  Br     -5.649013      1.152688      3.472399
  C      -7.940800      0.752488      2.022812
  H      -7.797563      2.183127      3.738216
  H      -7.797564      0.404584      4.229246
  H      -7.547511      1.481603      1.287838
  H      -9.045991      0.716174      1.891246
  H      -7.547509     -0.250426      1.766028
8
Coordinates from ORCA-job Optim_Bromoethane E -2653.280543961841
  C      -7.549363      1.148239      3.456287
  Br     -5.593792      1.160064      3.499123
  C      -7.952922      0.749469      2.011868
  H      -7.804288      2.187064      3.737720
  H      -7.804290      0.400945      4.230836
  H      -7.556349      1.481432      1.281706
  H      -9.057578      0.714587      1.885488
  H      -7.556338     -0.253421      1.760693
8
Coordinates from ORCA-job Optim_Bromoethane E -2653.281573301648
  C      -7.547095      1.146955      3.451636
  Br     -5.561444      1.165374      3.518363
  C      -7.959098      0.748390      2.007951
  H      -7.810319      2.184849      3.730766
  H      -7.810323      0.399274      4.223725
  H      -7.561104      1.481629      1.280010
  H      -9.064452      0.716363      1.891913
  H      -7.561084     -0.254455      1.759354
8
Coordinates from ORCA-job Optim_Bromoethane E -2653.282280388131
  C      -7.542266      1.144519      3.442811
  Br     -5.537298      1.170518      3.536999
  C      -7.962262      0.748425      2.008067
  H      -7.817494      2.179289      3.718519
  H      -7.817500      0.397759      4.210355
  H      -7.564594      1.481460      1.279767
  H      -9.068942      0.720841      1.908127
  H      -7.564564     -0.254431      1.759075
8
Coordinates from ORCA-job Optim_Bromoethane E -2653.282867417121
  C      -7.534499      1.141071      3.430317
  Br     -5.521639      1.175509      3.555085
  C      -7.961906      0.749636      2.012448
  H      -7.825994      2.171170      3.701792
  H      -7.826004      0.396143      4.191825
  H      -7.567360      1.480245      1.279781
  H      -9.070198      0.727984      1.933996
  H      -7.567321     -0.253377      1.758475
8
Coordinates from ORCA-job Optim_Bromoethane E -2653.283197732218
  C      -7.527209      1.138494      3.420977
  Br     -5.521123      1.178040      3.564257
  C      -7.957874      0.751395      2.018819
  H      -7.831996      2.164853      3.689847
  H      -7.832008      0.395438      4.178329
  H      -7.568740      1.477945      1.278780
  H      -9.067271      0.734133      1.956277
  H      -7.568699     -0.251918      1.756434
8
Coordinates from ORCA-job Optim_Bromoethane E -2653.283352592992
  C      -7.522716      1.137678      3.418017
  Br     -5.528896      1.178215      3.564892
  C      -7.953029      0.752685      2.023498
  H      -7.834295      2.162239      3.686810
  H      -7.834306      0.396128      4.174382
  H      -7.569381      1.475459      1.276458
  H      -9.062951      0.736955      1.966512
  H      -7.569346     -0.250979      1.753151
8
Coordinates from ORCA-job Optim_Bromoethane E -2653.283432416317
  C      -7.519983      1.137895      3.418800
  Br     -5.535121      1.177860      3.563598
  C      -7.949474      0.753242      2.025527
  H      -7.834906      2.161540      3.688856
  H      -7.834917      0.397783      4.175783
  H      -7.570462      1.473408      1.273316
  H      -9.059620      0.737488      1.968456
  H      -7.570437     -0.250836      1.749385
8
Coordinates from ORCA-job Optim_Bromoethane E -2653.283508264718
  C      -7.516553      1.138381      3.420561
  Br     -5.537654      1.178022      3.564173
  C      -7.946410      0.753417      2.026176
  H      -7.835897      2.160654      3.692530
  H      -7.835908      0.400434      4.178486
  H      -7.572865      1.471350      1.268889
  H      -9.056779      0.737468      1.968396
  H      -7.572854     -0.251348      1.744508
8
Coordinates from ORCA-job Optim_Bromoethane E -2653.283600366716
  C      -7.510759      1.138932      3.422558
  Br     -5.535489      1.179166      3.568290
  C      -7.943222      0.753212      2.025452
  H      -7.838287      2.158488      3.697374
  H      -7.838297      0.404786      4.181539
  H      -7.577450      1.469220      1.262419
  H      -9.053954      0.737427      1.968258
  H      -7.577461     -0.252850      1.737831
8
Coordinates from ORCA-job Optim_Bromoethane E -2653.283661095559
  C      -7.505693      1.139027      3.422907
  Br     -5.529799      1.180663      3.573690
  C      -7.941944      0.752641      2.023400
  H      -7.840877      2.155869      3.699936
  H      -7.840888      0.408351      4.182399
  H      -7.581354      1.469022      1.258319
  H      -9.052986      0.737598      1.968878
  H      -7.581380     -0.254791      1.734191
8
Coordinates from ORCA-job Optim_Bromoethane E -2653.283695644094
  C      -7.502711      1.138706      3.421752
  Br     -5.525238      1.181664      3.577298
  C      -7.942188      0.751980      2.021009
  H      -7.842568      2.153735      3.700184
  H      -7.842579      0.410307      4.181521
  H      -7.583115      1.470626      1.257559
  H      -9.053373      0.737922      1.970036
  H      -7.583147     -0.256561      1.734360
8
Coordinates from ORCA-job Optim_Bromoethane E -2653.283718795244
  C      -7.501099      1.138178      3.419848
  Br     -5.523483      1.182071      3.578754
  C      -7.942937      0.751348      2.018718
  H      -7.843364      2.152104      3.699483
  H      -7.843374      0.411343      4.180085
  H      -7.583244      1.473061      1.258736
  H      -9.054141      0.738324      1.971471
  H      -7.583278     -0.258049      1.736626
8
Coordinates from ORCA-job Optim_Bromoethane E -2653.283733902504
  C      -7.500427      1.137658      3.417977
  Br     -5.524677      1.181991      3.578449
  C      -7.943601      0.750867      2.016973
  H      -7.843332      2.151060      3.698836
  H      -7.843341      0.411901      4.178996
  H      -7.582383      1.475220      1.260460
  H      -9.054741      0.738701      1.972806
  H      -7.582417     -0.259017      1.739224
8
Coordinates from ORCA-job Optim_Bromoethane E -2653.283741651146
  C      -7.500341      1.137365      3.416926
  Br     -5.527120      1.181773      3.577647
  C      -7.943923      0.750654      2.016196
  H      -7.842791      2.150668      3.698827
  H      -7.842800      0.412228      4.178788
  H      -7.581462      1.476028      1.261341
  H      -9.054987      0.738924      1.973591
  H      -7.581495     -0.259260      1.740404
8
Coordinates from ORCA-job Optim_Bromoethane E -2653.283746654380
  C      -7.500396      1.137230      3.416445
  Br     -5.529136      1.181718      3.577431
  C      -7.944174      0.750580      2.015929
  H      -7.842108      2.150553      3.699287
  H      -7.842115      0.412558      4.179124
  H      -7.580890      1.475781      1.261285
  H      -9.055176      0.739039      1.973985
  H      -7.580925     -0.259078      1.740235
8
Coordinates from ORCA-job Optim_Bromoethane E -2653.283752538122
  C      -7.500432      1.137109      3.416021
  Br     -5.530743      1.181941      3.578213
  C      -7.944711      0.750522      2.015715
  H      -7.841146      2.150434      3.700172
  H      -7.841151      0.413107      4.179825
  H      -7.580527      1.474732      1.260478
  H      -9.055641      0.739129      1.974284
  H      -7.580569     -0.258595      1.739011
8
Coordinates from ORCA-job Optim_Bromoethane E -2653.283758504098
  C      -7.500353      1.136969      3.415528
  Br     -5.531167      1.182553      3.580392
  C      -7.945671      0.750447      2.015444
  H      -7.840031      2.150200      3.701320
  H      -7.840034      0.413888      4.180693
  H      -7.580542      1.473062      1.259016
  H      -9.056526      0.739178      1.974422
  H      -7.580595     -0.257917      1.736905
8
Coordinates from ORCA-job Optim_Bromoethane E -2653.283761708771
  C      -7.500217      1.136867      3.415168
  Br     -5.530114      1.183181      3.582636
  C      -7.946522      0.750390      2.015238
  H      -7.839404      2.149958      3.702000
  H      -7.839406      0.414441      4.181156
  H      -7.580929      1.471931      1.257936
  H      -9.057333      0.739119      1.974188
  H      -7.580994     -0.257506      1.735398
8
Coordinates from ORCA-job Optim_Bromoethane E -2653.283762736361
  C      -7.500134      1.136818      3.414994
  Br     -5.529036      1.183466      3.583652
  C      -7.946867      0.750373      2.015180
  H      -7.839283      2.149815      3.702128
  H      -7.839283      0.414627      4.181194
  H      -7.581288      1.471751      1.257701
  H      -9.057666      0.739006      1.973772
  H      -7.581362     -0.257475      1.735100
