14
Coordinates from ORCA-job Optim_TertButylBromide E -2729.382251136113
  C      -3.960240      0.960400      0.000000
  Br     -2.890240      0.960400      0.000000
  C      -4.316910      0.087970     -0.506510
  C      -4.316910      1.835270     -0.502290
  C      -4.316910      0.957970      1.008800
  H      -3.960230      0.090410     -1.515310
  H      -5.386910      0.087970     -0.506510
  H      -3.960240     -0.786900     -0.004210
  H      -3.960240      0.083100      1.511090
  H      -5.386910      0.957970      1.008800
  H      -3.960250      1.830400      1.515310
  H      -3.960240      1.837700     -1.511100
  H      -3.960250      2.707700      0.004210
  H      -5.386910      1.835270     -0.502290
14
Coordinates from ORCA-job Optim_TertButylBromide E -2729.892665342809
  C      -3.960169      0.960400      0.000000
  Br     -2.823399      0.960400     -0.000000
  C      -4.321066      0.072626     -0.515418
  C      -4.321066      1.850657     -0.511124
  C      -4.321067      0.957927      1.026544
  H      -3.964874      0.071474     -1.528108
  H      -5.395769      0.074133     -0.514543
  H      -3.964884     -0.807400     -0.014307
  H      -3.964884      0.081484      1.533883
  H      -5.395773      0.957931      1.024800
  H      -3.964894      1.831907      1.538112
  H      -3.964884      1.856697     -1.523806
  H      -3.964893      2.728249     -0.005787
  H      -5.395769      1.849145     -0.510256
14
Coordinates from ORCA-job Optim_TertButylBromide E -2730.294280300147
  C      -3.958688      0.960400     -0.000000
  Br     -2.759012      0.960400     -0.000000
  C      -4.325270      0.054582     -0.525894
  C      -4.325270      1.868751     -0.521512
  C      -4.325273      0.957877      1.047410
  H      -3.969351      0.050115     -1.542727
  H      -5.404564      0.056699     -0.524664
  H      -3.969361     -0.830681     -0.025605
  H      -3.969361      0.079504      1.559684
  H      -5.404574      0.957883      1.044963
  H      -3.969371      1.833763      1.563922
  H      -3.969361      1.878125     -1.538322
  H      -3.969370      2.751584     -0.016972
  H      -5.404565      1.866627     -0.520293
14
Coordinates from ORCA-job Optim_TertButylBromide E -2730.615222736000
  C      -3.956330      0.960400     -0.000000
  Br     -2.696527      0.960401     -0.000000
  C      -4.329409      0.034896     -0.537323
  C      -4.329409      1.888491     -0.532846
  C      -4.329413      0.957822      1.070175
  H      -3.973651      0.027236     -1.558515
  H      -5.413437      0.036928     -0.536142
  H      -3.973661     -0.855731     -0.037644
  H      -3.973661      0.077272      1.587384
  H      -5.413453      0.957827      1.067829
  H      -3.973671      1.835862      1.591634
  H      -3.973661      1.901080     -1.553999
  H      -3.973669      2.776692     -0.028889
  H      -5.413437      1.886453     -0.531675
14
Coordinates from ORCA-job Optim_TertButylBromide E -2730.874370902394
  C      -3.953225      0.960400     -0.000000
  Br     -2.635943      0.960401     -0.000000
  C      -4.333476      0.013837     -0.549548
  C      -4.333475      1.909608     -0.544969
  C      -4.333481      0.957763      1.094527
  H      -3.977823      0.003066     -1.575214
  H      -5.422254      0.015173     -0.548773
  H      -3.977832     -0.882214     -0.050351
  H      -3.977832      0.074896      1.616658
  H      -5.422279      0.957767      1.092990
  H      -3.977842      1.838098      1.620919
  H      -3.977833      1.925330     -1.570581
  H      -3.977840      2.803237     -0.041467
  H      -5.422254      1.908267     -0.544200
14
Coordinates from ORCA-job Optim_TertButylBromide E -2731.084941854805
  C      -3.949509      0.960400     -0.000001
  Br     -2.577115      0.960401     -0.000001
  C      -4.337478     -0.008334     -0.562420
  C      -4.337477      1.931841     -0.557734
  C      -4.337485      0.957702      1.120165
  H      -3.981928     -0.022164     -1.592556
  H      -5.430888     -0.008222     -0.562356
  H      -3.981936     -0.909780     -0.063660
  H      -3.981937      0.072492      1.647172
  H      -5.430923      0.957701      1.120049
  H      -3.981946      1.840355      1.651444
  H      -3.981937      1.950643     -1.587801
  H      -3.981943      2.830867     -0.054642
  H      -5.430889      1.931727     -0.557670
14
Coordinates from ORCA-job Optim_TertButylBromide E -2731.256503760806
  C      -3.945288      0.960400     -0.000001
  Br     -2.519888      0.960401     -0.000000
  C      -4.341427     -0.031426     -0.575827
  C      -4.341427      1.954997     -0.571029
  C      -4.341436      0.957637      1.146868
  H      -3.986026     -0.048279     -1.610308
  H      -5.439222     -0.033002     -0.576743
  H      -3.986034     -0.938142     -0.077535
  H      -3.986035      0.070177      1.678658
  H      -5.439263      0.957632      1.148709
  H      -3.986045      1.842519      1.682941
  H      -3.986036      1.976843     -1.605426
  H      -3.986041      2.859297     -0.068379
  H      -5.439222      1.956576     -0.571938
14
Coordinates from ORCA-job Optim_TertButylBromide E -2731.396217497237
  C      -3.940700      0.960400     -0.000001
  Br     -2.463989      0.960401      0.000001
  C      -4.345347     -0.055227     -0.589645
  C      -4.345347      1.978863     -0.584732
  C      -4.345357      0.957571      1.174389
  H      -3.990188     -0.075075     -1.628216
  H      -5.447139     -0.058886     -0.591771
  H      -3.990196     -0.966977     -0.091923
  H      -3.990198      0.068065      1.710812
  H      -5.447182      0.957560      1.178644
  H      -3.990207      1.844476      1.715104
  H      -3.990198      2.003725     -1.623204
  H      -3.990203      2.888201     -0.082628
  H      -5.447139      1.982531     -0.586841
14
Coordinates from ORCA-job Optim_TertButylBromide E -2731.509481206237
  C      -3.935853      0.960400     -0.000001
  Br     -2.409190      0.960401      0.000000
  C      -4.349257     -0.079582     -0.603785
  C      -4.349257      2.003286     -0.598755
  C      -4.349270      0.957503      1.202551
  H      -3.994475     -0.102393     -1.646069
  H      -5.454534     -0.085662     -0.607317
  H      -3.994484     -0.996022     -0.106792
  H      -3.994487      0.066261      1.743393
  H      -5.454576      0.957485      1.209609
  H      -3.994496      1.846124      1.747693
  H      -3.994486      2.031129     -1.640925
  H      -3.994490      2.917319     -0.097355
  H      -5.454533      2.009381     -0.602257
14
Coordinates from ORCA-job Optim_TertButylBromide E -2731.600585389730
  C      -3.930841      0.960400     -0.000002
  Br     -2.355295      0.960401     -0.000000
  C      -4.353180     -0.104372     -0.618177
  C      -4.353180      2.028144     -0.613027
  C      -4.353195      0.957434      1.231213
  H      -3.998939     -0.130095     -1.663688
  H      -5.461318     -0.113156     -0.623280
  H      -3.998948     -1.025054     -0.122109
  H      -3.998953      0.064851      1.776189
  H      -5.461358      0.957409      1.241404
  H      -3.998962      1.847376      1.780495
  H      -3.998950      2.058916     -1.658410
  H      -3.998953      2.946424     -0.112531
  H      -5.461318      2.036951     -0.618087
14
Coordinates from ORCA-job Optim_TertButylBromide E -2731.673066096493
  C      -3.925779      0.960400     -0.000002
  Br     -2.302061      0.960402     -0.000000
  C      -4.357141     -0.129464     -0.632745
  C      -4.357141      2.053306     -0.627474
  C      -4.357157      0.957364      1.260224
  H      -4.003617     -0.158009     -1.680898
  H      -5.467434     -0.141170     -0.639544
  H      -4.003626     -1.053836     -0.137810
  H      -4.003632      0.063898      1.808963
  H      -5.467468      0.957330      1.273796
  H      -4.003641      1.848173      1.813272
  H      -4.003629      2.086913     -1.675485
  H      -4.003630      2.975282     -0.128091
  H      -5.467434      2.065042     -0.634216
14
Coordinates from ORCA-job Optim_TertButylBromide E -2731.729828997877
  C      -3.920785      0.960399     -0.000003
  Br     -2.249263      0.960402     -0.000000
  C      -4.361164     -0.154741     -0.647421
  C      -4.361164      2.078653     -0.642027
  C      -4.361182      0.957294      1.289447
  H      -4.008519     -0.185943     -1.697572
  H      -5.472871     -0.169503     -0.655994
  H      -4.008527     -1.082164     -0.153795
  H      -4.008535      0.063417      1.841489
  H      -5.472902      0.957251      1.306559
  H      -4.008543      1.848497      1.845799
  H      -4.008532      2.114928     -1.692024
  H      -4.008531      3.003686     -0.143938
  H      -5.472871      2.093454     -0.650530
14
Coordinates from ORCA-job Optim_TertButylBromide E -2731.773286569928
  C      -3.915967      0.960399     -0.000005
  Br     -2.196725      0.960402     -0.000002
  C      -4.365271     -0.180112     -0.662153
  C      -4.365271      2.104094     -0.656637
  C      -4.365290      0.957223      1.318779
  H      -4.013616     -0.213702     -1.713654
  H      -5.477688     -0.197972     -0.672526
  H      -4.013622     -1.109891     -0.169921
  H      -4.013633      0.063362      1.873569
  H      -5.477722      0.957172      1.339487
  H      -4.013640      1.848398      1.877878
  H      -4.013629      2.142765     -1.707972
  H      -4.013625      3.031490     -0.159930
  H      -5.477689      2.122002     -0.666924
14
Coordinates from ORCA-job Optim_TertButylBromide E -2731.805498025370
  C      -3.911457      0.960399     -0.000009
  Br     -2.144262      0.960402     -0.000005
  C      -4.369488     -0.205484     -0.676887
  C      -4.369488      2.129537     -0.671248
  C      -4.369508      0.957152      1.348113
  H      -4.018833     -0.241025     -1.729137
  H      -5.482028     -0.226342     -0.689004
  H      -4.018837     -1.136881     -0.185971
  H      -4.018852      0.063611      1.904978
  H      -5.482065      0.957093      1.372316
  H      -4.018859      1.847998      1.909283
  H      -4.018846      2.170164     -1.723323
  H      -4.018839      3.058556     -0.175849
  H      -5.482029      2.150450     -0.683266
14
Coordinates from ORCA-job Optim_TertButylBromide E -2731.828242243701
  C      -3.907440      0.960399     -0.000013
  Br     -2.091645      0.960403     -0.000005
  C      -4.373853     -0.230739     -0.691555
  C      -4.373853      2.154862     -0.685795
  C      -4.373874      0.957081      1.377313
  H      -4.024047     -0.267543     -1.744047
  H      -5.486108     -0.254276     -0.705236
  H      -4.024053     -1.162974     -0.201612
  H      -4.024072      0.063961      1.935407
  H      -5.486143      0.957014      1.404658
  H      -4.024078      1.847501      1.939708
  H      -4.024061      2.196754     -1.738104
  H      -4.024054      3.084723     -0.191363
  H      -5.486109      2.178462     -0.699364
14
Coordinates from ORCA-job Optim_TertButylBromide E -2731.843052790661
  C      -3.904165      0.960399     -0.000016
  Br     -2.038672      0.960403     -0.000001
  C      -4.378425     -0.255744     -0.706081
  C      -4.378425      2.179937     -0.700201
  C      -4.378444      0.957012      1.406228
  H      -4.029084     -0.292736     -1.758416
  H      -5.490208     -0.281307     -0.720951
  H      -4.029094     -1.187943     -0.216381
  H      -4.029117      0.064126      1.964426
  H      -5.490231      0.956938      1.435969
  H      -4.029122      1.847197      1.968725
  H      -4.029098      2.222017     -1.752352
  H      -4.029095      3.109762     -0.206011
  H      -5.490209      2.205569     -0.714949
14
Coordinates from ORCA-job Optim_TertButylBromide E -2731.851282495993
  C      -3.901974      0.960399     -0.000018
  Br     -1.985269      0.960404      0.000004
  C      -4.383296     -0.280349     -0.720376
  C      -4.383296      2.204610     -0.714377
  C      -4.383310      0.956943      1.434682
  H      -4.033709     -0.315856     -1.772225
  H      -5.494612     -0.306749     -0.735747
  H      -4.033730     -1.211403     -0.229642
  H      -4.033752      0.063749      1.991384
  H      -5.494619      0.956867      1.465453
  H      -4.033756      1.847444      1.995683
  H      -4.033723      2.245204     -1.766049
  H      -4.033731      3.133285     -0.219158
  H      -5.494612      2.231081     -0.729623
14
Coordinates from ORCA-job Optim_TertButylBromide E -2731.854052838316
  C      -3.901558      0.960399     -0.000017
  Br     -1.939952      0.960405      0.000010
  C      -4.387787     -0.300490     -0.732077
  C      -4.387788      2.224807     -0.725982
  C      -4.387791      0.956886      1.457976
  H      -4.036976     -0.332471     -1.783189
  H      -5.498822     -0.325794     -0.746831
  H      -4.037013     -1.229176     -0.238676
  H      -4.037028      0.062589      2.011295
  H      -5.498818      0.956813      1.487534
  H      -4.037031      1.848509      2.015599
  H      -4.036990      2.261873     -1.776932
  H      -4.037014      3.151100     -0.228106
  H      -5.498822      2.250179     -0.740615
14
Coordinates from ORCA-job Optim_TertButylBromide E -2731.854357702848
  C      -3.902818      0.960399     -0.000014
  Br     -1.925143      0.960405      0.000014
  C      -4.389576     -0.306297     -0.735451
  C      -4.389577      2.230630     -0.729327
  C      -4.389572      0.956870      1.464693
  H      -4.037450     -0.335112     -1.786018
  H      -5.500597     -0.329583     -0.749043
  H      -4.037499     -1.232956     -0.239592
  H      -4.037503      0.061473      2.015021
  H      -5.500589      0.956803      1.491936
  H      -4.037506      1.849607      2.019330
  H      -4.037462      2.264527     -1.779748
  H      -4.037499      3.154884     -0.229003
  H      -5.500597      2.253979     -0.742808
14
Coordinates from ORCA-job Optim_TertButylBromide E -2731.854522752957
  C      -3.905112      0.960400     -0.000010
  Br     -1.917169      0.960405      0.000019
  C      -4.390854     -0.308510     -0.736735
  C      -4.390854      2.232849     -0.730601
  C      -4.390841      0.956864      1.467254
  H      -4.037106     -0.333586     -1.786668
  H      -5.501896     -0.329075     -0.748760
  H      -4.037169     -1.232783     -0.237972
  H      -4.037160      0.060158      2.014051
  H      -5.501882      0.956805      1.491361
  H      -4.037163      1.850926      2.018366
  H      -4.037117      2.263004     -1.780405
  H      -4.037170      3.154703     -0.227383
  H      -5.501897      2.253469     -0.742527
14
Coordinates from ORCA-job Optim_TertButylBromide E -2731.854764423333
  C      -3.910626      0.960400      0.000002
  Br     -1.908294      0.960406      0.000029
  C      -4.392730     -0.309286     -0.737185
  C      -4.392730      2.233628     -0.731048
  C      -4.392699      0.956862      1.468158
  H      -4.035768     -0.327009     -1.785833
  H      -5.503811     -0.324389     -0.746064
  H      -4.035860     -1.228838     -0.232728
  H      -4.035820      0.057612      2.007990
  H      -5.503781      0.956818      1.485963
  H      -4.035824      1.853502      2.012318
  H      -4.035775      2.256422     -1.779601
  H      -4.035862      3.150733     -0.222156
  H      -5.503811      2.248770     -0.739853
14
Coordinates from ORCA-job Optim_TertButylBromide E -2731.854933055653
  C      -3.916502      0.960401      0.000015
  Br     -1.905478      0.960407      0.000042
  C      -4.393782     -0.307187     -0.735965
  C      -4.393783      2.231523     -0.729838
  C      -4.393733      0.956868      1.465739
  H      -4.034182     -0.318912     -1.783526
  H      -5.504906     -0.318021     -0.742395
  H      -4.034303     -1.222858     -0.226889
  H      -4.034230      0.055576      1.999870
  H      -5.504857      0.956836      1.478619
  H      -4.034234      1.855577      2.004209
  H      -4.034186      2.248311     -1.777332
  H      -4.034306      3.144726     -0.216345
  H      -5.504907      2.242384     -0.736214
14
Coordinates from ORCA-job Optim_TertButylBromide E -2731.855029816850
  C      -3.920831      0.960401      0.000026
  Br     -1.907049      0.960408      0.000053
  C      -4.393798     -0.304107     -0.734177
  C      -4.393799      2.228436     -0.728066
  C      -4.393736      0.956877      1.462188
  H      -4.033142     -0.313514     -1.781301
  H      -5.505003     -0.313883     -0.740016
  H      -4.033284     -1.218273     -0.223333
  H      -4.033185      0.054811      1.994109
  H      -5.504939      0.956848      1.473852
  H      -4.033190      1.856369      1.998454
  H      -4.033143      2.242900     -1.775132
  H      -4.033288      3.140124     -0.212812
  H      -5.505003      2.238234     -0.733856
14
Coordinates from ORCA-job Optim_TertButylBromide E -2731.855104162998
  C      -3.924169      0.960401      0.000036
  Br     -1.909229      0.960409      0.000064
  C      -4.393252     -0.301504     -0.732667
  C      -4.393253      2.225826     -0.726569
  C      -4.393179      0.956884      1.459191
  H      -4.032705     -0.311319     -1.779840
  H      -5.504584     -0.312929     -0.739487
  H      -4.032864     -1.215930     -0.222170
  H      -4.032742      0.054981      1.991494
  H      -5.504509      0.956850      1.472774
  H      -4.032748      1.856211      1.995839
  H      -4.032704      2.240697     -1.773682
  H      -4.032868      3.137776     -0.211661
  H      -5.504585      2.237278     -0.733333
14
Coordinates from ORCA-job Optim_TertButylBromide E -2731.855197749881
  C      -3.928524      0.960401      0.000051
  Br     -1.910306      0.960410      0.000080
  C      -4.392288     -0.299265     -0.731371
  C      -4.392289      2.223582     -0.725285
  C      -4.392200      0.956889      1.456622
  H      -4.032662     -0.311499     -1.778917
  H      -5.503825     -0.315320     -0.740914
  H      -4.032844     -1.215231     -0.222805
  H      -4.032689      0.055871      1.991206
  H      -5.503734      0.956842      1.475585
  H      -4.032697      1.855319      1.995548
  H      -4.032657      2.240871     -1.772758
  H      -4.032849      3.137081     -0.212300
  H      -5.503825      2.239678     -0.734752
14
Coordinates from ORCA-job Optim_TertButylBromide E -2731.855288980171
  C      -3.933541      0.960402      0.000067
  Br     -1.908137      0.960411      0.000096
  C      -4.391358     -0.298732     -0.731068
  C      -4.391358      2.223048     -0.724986
  C      -4.391252      0.956890      1.456032
  H      -4.033015     -0.314427     -1.779113
  H      -5.503098     -0.321565     -0.744587
  H      -4.033227     -1.216867     -0.225275
  H      -4.033034      0.057167      1.993862
  H      -5.502991      0.956823      1.482865
  H      -4.033042      1.854008      1.998200
  H      -4.033007      2.243799     -1.772941
  H      -4.033233      3.138730     -0.214764
  H      -5.503098      2.245943     -0.738398
14
Coordinates from ORCA-job Optim_TertButylBromide E -2731.855338832173
  C      -3.937162      0.960402      0.000077
  Br     -1.903863      0.960411      0.000102
  C      -4.391106     -0.300198     -0.731924
  C      -4.391107      2.224519     -0.725836
  C      -4.390989      0.956885      1.457744
  H      -4.033329     -0.317835     -1.780179
  H      -5.502933     -0.328087     -0.748402
  H      -4.033564     -1.219491     -0.227723
  H      -4.033345      0.057952      1.997364
  H      -5.502815      0.956804      1.490441
  H      -4.033354      1.853206      2.001699
  H      -4.033320      2.247213     -1.773990
  H      -4.033571      3.141366     -0.217199
  H      -5.502932      2.252483     -0.742184
14
Coordinates from ORCA-job Optim_TertButylBromide E -2731.855355350129
  C      -3.938771      0.960402      0.000079
  Br     -1.901395      0.960411      0.000097
  C      -4.391357     -0.301741     -0.732821
  C      -4.391357      2.226065     -0.726726
  C      -4.391236      0.956881      1.459532
  H      -4.033220     -0.319197     -1.780941
  H      -5.503182     -0.331349     -0.750298
  H      -4.033464     -1.220831     -0.228529
  H      -4.033238      0.057972      1.998931
  H      -5.503062      0.956795      1.494211
  H      -4.033247      1.853177      2.003266
  H      -4.033210      2.248579     -1.774747
  H      -4.033471      3.142711     -0.217999
  H      -5.503181      2.255754     -0.744066
14
Coordinates from ORCA-job Optim_TertButylBromide E -2731.855366391613
  C      -3.940075      0.960402      0.000078
  Br     -1.900748      0.960411      0.000085
  C      -4.391691     -0.302920     -0.733505
  C      -4.391691      2.227248     -0.727404
  C      -4.391571      0.956878      1.460897
  H      -4.032785     -0.319498     -1.781346
  H      -5.503490     -0.333486     -0.751531
  H      -4.033035     -1.221334     -0.228584
  H      -4.032809      0.057770      1.999396
  H      -5.503371      0.956790      1.496664
  H      -4.032817      1.853377      2.003732
  H      -4.032776      2.248884     -1.775150
  H      -4.033042      3.143213     -0.218052
  H      -5.503489      2.257896     -0.745288
14
Coordinates from ORCA-job Optim_TertButylBromide E -2731.855386369020
  C      -3.942897      0.960402      0.000074
  Br     -1.901914      0.960410      0.000056
  C      -4.392280     -0.304685     -0.734527
  C      -4.392279      2.229016     -0.728417
  C      -4.392162      0.956873      1.462934
  H      -4.031558     -0.319320     -1.781715
  H      -5.504008     -0.337336     -0.753743
  H      -4.031818     -1.221565     -0.228229
  H      -4.031595      0.057356      1.999425
  H      -5.503895      0.956780      1.501064
  H      -4.031602      1.853792      2.003763
  H      -4.031550      2.248711     -1.775519
  H      -4.031825      3.143443     -0.217696
  H      -5.504007      2.261754     -0.747481
14
Coordinates from ORCA-job Optim_TertButylBromide E -2731.855414194308
  C      -3.947713      0.960402      0.000067
  Br     -1.906682      0.960408      0.000003
  C      -4.393008     -0.306642     -0.735657
  C      -4.393007      2.230978     -0.729537
  C      -4.392898      0.956868      1.465192
  H      -4.029287     -0.318439     -1.781765
  H      -5.504598     -0.343165     -0.757084
  H      -4.029560     -1.221168     -0.227399
  H      -4.029348      0.056856      1.998679
  H      -5.504494      0.956766      1.507709
  H      -4.029352      1.854296      2.003017
  H      -4.029282      2.247835     -1.775574
  H      -4.029566      3.143041     -0.216868
  H      -5.504596      2.267595     -0.750793
14
Coordinates from ORCA-job Optim_TertButylBromide E -2731.855436472899
  C      -3.952515      0.960402      0.000061
  Br     -1.914000      0.960407     -0.000052
  C      -4.393450     -0.307607     -0.736211
  C      -4.393449      2.231945     -0.730085
  C      -4.393350      0.956866      1.466300
  H      -4.026892     -0.317215     -1.781301
  H      -5.504879     -0.348349     -0.760047
  H      -4.027171     -1.220149     -0.226519
  H      -4.026975      0.056626      1.997369
  H      -5.504787      0.956753      1.513603
  H      -4.026978      1.854534      2.001708
  H      -4.026889      2.246611     -1.775116
  H      -4.027178      3.142017     -0.215992
  H      -5.504878      2.272790     -0.753729
14
Coordinates from ORCA-job Optim_TertButylBromide E -2731.855444095007
  C      -3.954247      0.960402      0.000058
  Br     -1.918408      0.960406     -0.000075
  C      -4.393390     -0.307229     -0.735987
  C      -4.393388      2.231566     -0.729863
  C      -4.393295      0.956867      1.465858
  H      -4.025958     -0.316650     -1.780778
  H      -5.504758     -0.349676     -0.760797
  H      -4.026229     -1.219406     -0.226264
  H      -4.026048      0.056787      1.996604
  H      -5.504671      0.956750      1.515098
  H      -4.026051      1.854377      2.000943
  H      -4.025954      2.246043     -1.774595
  H      -4.026237      3.141273     -0.215740
  H      -5.504757      2.274120     -0.754472
14
Coordinates from ORCA-job Optim_TertButylBromide E -2731.855445046403
  C      -3.954084      0.960402      0.000059
  Br     -1.919090      0.960406     -0.000075
  C      -4.393249     -0.306790     -0.735730
  C      -4.393248      2.231126     -0.729608
  C      -4.393157      0.956869      1.465346
  H      -4.026006     -0.316717     -1.780596
  H      -5.504633     -0.349077     -0.760448
  H      -4.026268     -1.219278     -0.226407
  H      -4.026096      0.056975      1.996564
  H      -5.504548      0.956751      1.514406
  H      -4.026099      1.854189      2.000903
  H      -4.026002      2.246107     -1.774413
  H      -4.026276      3.141146     -0.215884
  H      -5.504632      2.273521     -0.754126
