11
Coordinates from ORCA-job Optim_IsopropylBromide E -2690.485611252064
  C      -7.431030      1.082780      3.219180
  Br     -6.361030      1.082780      3.219180
  C      -7.787700      0.814310      2.246750
  C      -7.787700      2.059160      3.472890
  H      -7.787700      0.374870      3.937890
  H      -7.431030      1.522230      1.528040
  H      -8.857700      0.814320      2.246750
  H      -7.431030     -0.162070      1.993040
  H      -7.431030      2.767070      2.754180
  H      -7.431040      2.327630      4.445320
  H      -8.857700      2.059160      3.472890
11
Coordinates from ORCA-job Optim_IsopropylBromide E -2690.999840736164
  C      -7.436060      1.074343      3.227744
  Br     -6.291158      1.070186      3.231964
  C      -7.795138      0.803453      2.232890
  C      -7.795138      2.073183      3.483536
  H      -7.782422      0.372825      3.939965
  H      -7.435377      1.511383      1.510524
  H      -8.870314      0.807974      2.231183
  H      -7.441690     -0.177031      1.974546
  H      -7.435378      2.784752      2.764760
  H      -7.441700      2.346349      4.459999
  H      -8.870315      2.074822      3.478999
11
Coordinates from ORCA-job Optim_IsopropylBromide E -2691.385359873334
  C      -7.438292      1.064082      3.238160
  Br     -6.224385      1.056674      3.245680
  C      -7.802980      0.789628      2.214602
  C      -7.802981      2.091679      3.497082
  H      -7.774759      0.366424      3.946461
  H      -7.440023      1.498503      1.488769
  H      -8.883328      0.797439      2.209539
  H      -7.452289     -0.195353      1.951337
  H      -7.440024      2.806703      2.777309
  H      -7.452300      2.369833      4.477965
  H      -8.883330      2.096625      3.489206
11
Coordinates from ORCA-job Optim_IsopropylBromide E -2691.680605007232
  C      -7.439355      1.053034      3.249376
  Br     -6.159273      1.042964      3.259598
  C      -7.810846      0.774606      2.194523
  C      -7.810847      2.111985      3.511799
  H      -7.766435      0.357815      3.955201
  H      -7.444726      1.484911      1.465229
  H      -8.896510      0.784886      2.185230
  H      -7.462723     -0.215004      1.925994
  H      -7.444728      2.830451      2.790542
  H      -7.462734      2.395470      4.497230
  H      -8.896513      2.121123      3.501389
11
Coordinates from ORCA-job Optim_IsopropylBromide E -2691.908585094869
  C      -7.439445      1.041384      3.261202
  Br     -6.095662      1.029201      3.273569
  C      -7.818681      0.758671      2.173003
  C      -7.818682      2.133743      3.527405
  H      -7.757794      0.346979      3.966201
  H      -7.449523      1.470781      1.440264
  H      -8.909665      0.770682      2.158752
  H      -7.473015     -0.235586      1.898833
  H      -7.449526      2.855631      2.804293
  H      -7.473027      2.422939      4.517397
  H      -8.909669      2.147814      3.515190
11
Coordinates from ORCA-job Optim_IsopropylBromide E -2692.085029692287
  C      -7.438770      1.029315      3.273455
  Br     -6.033330      1.015520      3.287458
  C      -7.826463      0.742097      2.150358
  C      -7.826465      2.156637      3.543635
  H      -7.749120      0.333916      3.979463
  H      -7.454452      1.456264      1.414290
  H      -8.922582      0.755177      2.130554
  H      -7.483228     -0.256659      1.870182
  H      -7.454456      2.881825      2.818415
  H      -7.483240      2.451905      4.538033
  H      -8.922585      2.176244      3.530266
11
Coordinates from ORCA-job Optim_IsopropylBromide E -2692.221305985409
  C      -7.437557      1.017014      3.285943
  Br     -5.972017      1.002044      3.301139
  C      -7.834187      0.725116      2.126872
  C      -7.834189      2.180378      3.560257
  H      -7.740674      0.318724      3.994886
  H      -7.459556      1.441454      1.387727
  H      -8.935034      0.738683      2.101049
  H      -7.493432     -0.277799      1.840388
  H      -7.459562      2.908613      2.832821
  H      -7.493444      2.482015      4.558718
  H      -8.935039      2.205997      3.546311
11
Coordinates from ORCA-job Optim_IsopropylBromide E -2692.325746380983
  C      -7.436057      1.004685      3.298459
  Br     -5.911439      0.988891      3.314491
  C      -7.841861      0.707922      2.102806
  C      -7.841863      2.204702      3.577085
  H      -7.732712      0.301656      4.012216
  H      -7.464873      1.426388      1.360998
  H      -8.946799      0.721479      2.070628
  H      -7.503696     -0.298612      1.809830
  H      -7.464880      2.935570      2.847481
  H      -7.503707      2.512884      4.579064
  H      -8.946804      2.236675      3.563051
11
Coordinates from ORCA-job Optim_IsopropylBromide E -2692.404707313140
  C      -7.434478      0.992516      3.310815
  Br     -5.851390      0.976165      3.327411
  C      -7.849499      0.690611      2.078333
  C      -7.849501      2.229434      3.594022
  H      -7.725448      0.283062      4.031093
  H      -7.470423      1.411020      1.334443
  H      -8.957684      0.703748      2.039599
  H      -7.514067     -0.318814      1.778844
  H      -7.470432      2.962357      2.862446
  H      -7.514078      2.544171      4.598794
  H      -8.957690      2.267970      3.580310
11
Coordinates from ORCA-job Optim_IsopropylBromide E -2692.463250540070
  C      -7.433074      0.980722      3.322789
  Br     -5.791617      0.963972      3.339789
  C      -7.857130      0.673255      2.053637
  C      -7.857133      2.254390      3.611002
  H      -7.719120      0.263570      4.050885
  H      -7.476183      1.395301      1.308433
  H      -8.967553      0.685684      2.008342
  H      -7.524559     -0.338182      1.747877
  H      -7.476193      2.988603      2.877769
  H      -7.524568      2.575426      4.617689
  H      -8.967559      2.299497      3.597897
11
Coordinates from ORCA-job Optim_IsopropylBromide E -2692.505360760223
  C      -7.432117      0.969551      3.334130
  Br     -5.731873      0.952431      3.351506
  C      -7.864788      0.655875      2.028887
  C      -7.864791      2.279401      3.628004
  H      -7.714009      0.244001      4.070753
  H      -7.482051      1.379220      1.283316
  H      -8.976391      0.667473      1.977283
  H      -7.535101     -0.356636      1.717446
  H      -7.482063      3.013964      2.893469
  H      -7.535109      2.606132      4.635681
  H      -8.976396      2.330829      3.615635
11
Coordinates from ORCA-job Optim_IsopropylBromide E -2692.534261666518
  C      -7.431858      0.959313      3.344524
  Br     -5.671958      0.941688      3.362412
  C      -7.872512      0.638443      2.004215
  C      -7.872516      2.304335      3.645059
  H      -7.710470      0.225312      4.089729
  H      -7.487823      1.362843      1.259391
  H      -8.984347      0.649291      1.946905
  H      -7.545505     -0.374299      1.688142
  H      -7.487836      3.038137      2.909482
  H      -7.545512      2.635698      4.652898
  H      -8.984353      2.361479      3.633354
11
Coordinates from ORCA-job Optim_IsopropylBromide E -2692.552686645397
  C      -7.432591      0.950428      3.353545
  Br     -5.611700      0.931958      3.372289
  C      -7.880356      0.620939      1.979779
  C      -7.880361      2.329034      3.662190
  H      -7.708974      0.208697      4.106599
  H      -7.493150      1.346400      1.237015
  H      -8.991755      0.631408      1.917876
  H      -7.555434     -0.391469      1.660785
  H      -7.493167      3.060762      2.925584
  H      -7.555440      2.663310      4.669653
  H      -8.991762      2.390775      3.650794
11
Coordinates from ORCA-job Optim_IsopropylBromide E -2692.562951544611
  C      -7.434623      0.943474      3.360606
  Br     -5.551059      0.923576      3.380796
  C      -7.888396      0.603396      1.955771
  C      -7.888402      2.353306      3.679366
  H      -7.710136      0.195452      4.120050
  H      -7.497540      1.330326      1.216666
  H      -8.999095      0.614276      1.891089
  H      -7.564386     -0.408567      1.636520
  H      -7.497560      3.081356      2.941348
  H      -7.564389      2.687829      4.686382
  H      -8.999104      2.417818      3.667518
11
Coordinates from ORCA-job Optim_IsopropylBromide E -2692.566880279877
  C      -7.437867      0.939866      3.364269
  Br     -5.497326      0.917878      3.386578
  C      -7.895745      0.588012      1.935211
  C      -7.895752      2.374096      3.694436
  H      -7.714360      0.188028      4.127590
  H      -7.500061      1.316937      1.201084
  H      -9.005921      0.600517      1.870540
  H      -7.570820     -0.423947      1.619441
  H      -7.500085      3.097143      2.954499
  H      -7.570822      2.705136      4.701501
  H      -9.005931      2.438573      3.680963
11
Coordinates from ORCA-job Optim_IsopropylBromide E -2692.567638798421
  C      -7.440571      0.940830      3.363289
  Br     -5.473789      0.916935      3.387532
  C      -7.899113      0.581579      1.927041
  C      -7.899120      2.382363      3.700743
  H      -7.719323      0.188663      4.126946
  H      -7.500062      1.311718      1.196125
  H      -9.009210      0.596110      1.864641
  H      -7.572096     -0.430882      1.616479
  H      -7.500089      3.102183      2.959642
  H      -7.572097      2.708203      4.708390
  H      -9.009220      2.444538      3.685281
11
Coordinates from ORCA-job Optim_IsopropylBromide E -2692.568142170606
  C      -7.443802      0.944553      3.359508
  Br     -5.457753      0.918025      3.386422
  C      -7.901455      0.577614      1.922595
  C      -7.901463      2.386868      3.704641
  H      -7.726471      0.193073      4.122469
  H      -7.499111      1.308483      1.194287
  H      -9.011568      0.594995      1.863984
  H      -7.571173     -0.435682      1.619729
  H      -7.499142      3.104072      2.962850
  H      -7.571175      2.705028      4.713238
  H      -9.011578      2.445211      3.686388
11
Coordinates from ORCA-job Optim_IsopropylBromide E -2692.568796299868
  C      -7.449164      0.953326      3.350600
  Br     -5.441559      0.921727      3.382656
  C      -7.903688      0.574238      1.920142
  C      -7.903695      2.389371      3.707980
  H      -7.739796      0.203579      4.111804
  H      -7.497114      1.304934      1.193934
  H      -9.013842      0.596718      1.868209
  H      -7.567413     -0.440530      1.631396
  H      -7.497150      3.104479      2.966393
  H      -7.567417      2.693442      4.718262
  H      -9.013852      2.440957      3.684733
11
Coordinates from ORCA-job Optim_IsopropylBromide E -2692.569314274541
  C      -7.454224      0.964225      3.339534
  Br     -5.434468      0.926633      3.377667
  C      -7.904178      0.573523      1.922218
  C      -7.904185      2.387304      3.708726
  H      -7.754106      0.216454      4.098733
  H      -7.495491      1.301730      1.194344
  H      -9.014369      0.601015      1.876014
  H      -7.561877     -0.442692      1.648036
  H      -7.495530      3.104119      2.969604
  H      -7.561884      2.676846      4.720676
  H      -9.014379      2.433083      3.680559
11
Coordinates from ORCA-job Optim_IsopropylBromide E -2692.569573638288
  C      -7.456262      0.971445      3.332202
  Br     -5.437230      0.929480      3.374771
  C      -7.902836      0.574786      1.926713
  C      -7.902843      2.382789      3.707533
  H      -7.761967      0.224750      4.090310
  H      -7.495790      1.298584      1.193035
  H      -9.013104      0.604245      1.881267
  H      -7.557852     -0.442275      1.659702
  H      -7.495831      3.105474      2.972730
  H      -7.557861      2.665182      4.720434
  H      -9.013115      2.427778      3.677413
11
Coordinates from ORCA-job Optim_IsopropylBromide E -2692.569708009279
  C      -7.455934      0.974598      3.329002
  Br     -5.442248      0.929692      3.374554
  C      -7.900988      0.575815      1.930346
  C      -7.900994      2.379140      3.706560
  H      -7.763930      0.228194      4.086814
  H      -7.497731      1.294515      1.189131
  H      -9.011343      0.604656      1.881799
  H      -7.556192     -0.441677      1.664246
  H      -7.497773      3.109437      2.976740
  H      -7.556203      2.660635      4.719906
  H      -9.011353      2.427236      3.677013
11
Coordinates from ORCA-job Optim_IsopropylBromide E -2692.569812773531
  C      -7.454616      0.976261      3.327314
  Br     -5.445295      0.928103      3.376166
  C      -7.899166      0.575663      1.932451
  C      -7.899172      2.377037      3.706745
  H      -7.763487      0.229889      4.085095
  H      -7.500946      1.288209      1.182192
  H      -9.009576      0.602565      1.878676
  H      -7.555924     -0.442241      1.664992
  H      -7.500988      3.116466      2.982940
  H      -7.555936      2.659900      4.720482
  H      -9.009586      2.430388      3.679058
11
Coordinates from ORCA-job Optim_IsopropylBromide E -2692.569902511129
  C      -7.453084      0.977787      3.325766
  Br     -5.444258      0.925205      3.379106
  C      -7.897778      0.573973      1.932500
  C      -7.897783      2.377011      3.708437
  H      -7.762398      0.231426      4.083536
  H      -7.504919      1.279660      1.172624
  H      -9.008199      0.598357      1.872969
  H      -7.556544     -0.444549      1.663875
  H      -7.504961      3.126159      2.991343
  H      -7.556557      2.661056      4.722773
  H      -9.008209      2.436154      3.683181
11
Coordinates from ORCA-job Optim_IsopropylBromide E -2692.569963972981
  C      -7.452061      0.979571      3.323956
  Br     -5.439880      0.922153      3.382202
  C      -7.897274      0.571541      1.930647
  C      -7.897279      2.378900      3.710843
  H      -7.761686      0.233274      4.081661
  H      -7.508055      1.271974      1.163866
  H      -9.007704      0.593839      1.867651
  H      -7.557464     -0.447790      1.662772
  H      -7.508097      3.135029      2.998896
  H      -7.557478      2.662211      4.725997
  H      -9.007714      2.441538      3.687619
11
Coordinates from ORCA-job Optim_IsopropylBromide E -2692.570006434618
  C      -7.451525      0.981577      3.321921
  Br     -5.435544      0.919649      3.384744
  C      -7.897379      0.569592      1.928162
  C      -7.897384      2.381414      3.712754
  H      -7.761294      0.235341      4.079562
  H      -7.509697      1.267177      1.157982
  H      -9.007863      0.590464      1.864758
  H      -7.558190     -0.450626      1.662838
  H      -7.509739      3.140982      3.003604
  H      -7.558204      2.662190      4.728834
  H      -9.007872      2.444480      3.690951
11
Coordinates from ORCA-job Optim_IsopropylBromide E -2692.570058331594
  C      -7.450821      0.984657      3.318794
  Br     -5.431798      0.916449      3.387994
  C      -7.897686      0.567876      1.924820
  C      -7.897691      2.384781      3.714421
  H      -7.760457      0.238433      4.076422
  H      -7.510875      1.263128      1.152166
  H      -9.008297      0.586964      1.863297
  H      -7.558913     -0.453671      1.664303
  H      -7.510917      3.146856      3.007564
  H      -7.558928      2.660773      4.731901
  H      -9.008307      2.445994      3.694427
11
Coordinates from ORCA-job Optim_IsopropylBromide E -2692.570129780624
  C      -7.449415      0.989500      3.313878
  Br     -5.430203      0.911641      3.392878
  C      -7.897982      0.566675      1.920435
  C      -7.897987      2.389183      3.715557
  H      -7.758308      0.243147      4.071635
  H      -7.511887      1.259461      1.145395
  H      -9.008813      0.582902      1.863708
  H      -7.559666     -0.456905      1.667812
  H      -7.511926      3.153678      3.011128
  H      -7.559680      2.657314      4.735190
  H      -9.008822      2.445645      3.698494
11
Coordinates from ORCA-job Optim_IsopropylBromide E -2692.570196019218
  C      -7.447396      0.994587      3.308714
  Br     -5.433344      0.906468      3.398135
  C      -7.897944      0.566911      1.916843
  C      -7.897950      2.392772      3.715269
  H      -7.754925      0.247939      4.066765
  H      -7.512521      1.257685      1.139898
  H      -9.008999      0.579815      1.866516
  H      -7.560016     -0.458709      1.672465
  H      -7.512557      3.159197      3.012821
  H      -7.560029      2.652689      4.737065
  H      -9.009008      2.442886      3.701620
11
Coordinates from ORCA-job Optim_IsopropylBromide E -2692.570224935375
  C      -7.446014      0.996751      3.306517
  Br     -5.438830      0.903997      3.400646
  C      -7.897608      0.568200      1.916245
  C      -7.897613      2.393350      3.713971
  H      -7.752527      0.249841      4.064832
  H      -7.512664      1.258333      1.138583
  H      -9.008755      0.579482      1.869598
  H      -7.559603     -0.458134      1.675038
  H      -7.512697      3.160502      3.012153
  H      -7.559615      2.650106      4.736529
  H      -9.008764      2.439812      3.701997
11
Coordinates from ORCA-job Optim_IsopropylBromide E -2692.570230772415
  C      -7.445717      0.996517      3.306754
  Br     -5.441601      0.903886      3.400761
  C      -7.897422      0.568956      1.917070
  C      -7.897427      2.392514      3.713227
  H      -7.752037      0.249514      4.065162
  H      -7.512681      1.259285      1.139444
  H      -9.008560      0.580398      1.870864
  H      -7.558976     -0.457060      1.675058
  H      -7.512713      3.159627      3.011215
  H      -7.558987      2.650069      4.735456
  H      -9.008569      2.438534      3.701099
11
Coordinates from ORCA-job Optim_IsopropylBromide E -2692.570232756665
  C      -7.445689      0.996086      3.307192
  Br     -5.442480      0.903931      3.400715
  C      -7.897420      0.569154      1.917595
  C      -7.897426      2.391987      3.713037
  H      -7.752073      0.249067      4.065616
  H      -7.512809      1.259695      1.140040
  H      -9.008535      0.581041      1.871291
  H      -7.558431     -0.456438      1.674524
  H      -7.512841      3.159026      3.010813
  H      -7.558443      2.650593      4.734826
  H      -9.008543      2.438098      3.700462
