9
	Energy:      -8.9075944
  C   -1.92992083790359     -0.83428400846182      0.09175782748110
  C   -2.63993399183076     -1.96337279128519      0.79239381998087
  H   -2.15308070977768      0.13149262473878      0.53069768921022
  H   -2.40956838656506     -2.92482092678142      0.32863337439924
  H   -3.72236866778075     -1.81945882844175      0.77930794687932
  H   -2.28186610953985     -1.95908731749748      1.82554240199045
  Cl  -2.44499822705980     -0.71941205159786     -1.68128974500025
  Br  -0.40872353590178     -0.29340019057061      3.18817099094641
  H   -0.85367953364072     -0.96385651010263      0.08256569411264
