12
	Energy:      -6.0965067
C         -4.62470        0.73866       -0.12122
Br        -0.78786        0.98339        1.69432
C         -4.12555       -0.58249       -0.68820
C         -4.15803        1.92168       -0.95712
H         -4.28967        0.85412        0.91354
H         -3.06495        1.96277       -0.99721
H         -4.51069        2.86672       -0.53010
H         -4.52634        1.85706       -1.98704
H         -3.03167       -0.60311       -0.72166
H         -4.49255       -0.74745       -1.70735
H         -4.45504       -1.42406       -0.06932
Cl        -6.42055        0.71942       -0.08346
